test/data/three_phase/ieee_four_bus_constant_current/result.csv
# result.csv run at 2000-01-01 00:00:00 EST on 13 powerflow objects (not all are nodes)
node_name,voltA_real,voltA_imag,voltB_real,voltB_imag,voltC_real,voltC_imag
node1,7199.558000,0.000000,-3599.779000,-6235.000000,-3599.779000,6235.000000
node2,7214.088567,-0.116267,-3585.107444,-6234.805344,-3585.798499,6235.192888
node3,2416.097266,1.452838,-1186.660495,-2077.668173,-1187.002126,2082.621162
load4,2470.543232,1.017185,-1131.686246,-2076.938798,-1134.617255,2083.343911
